18
	Energy:       7.1469004
C         -3.28506        0.96294        0.26165
C         -2.91026       -0.46996       -0.14527
C         -2.28676        1.96523       -0.33596
H         -3.27419        1.04926        1.37071
H         -4.31072        1.19717       -0.09507
C         -1.48011       -0.80068        0.30640
H         -2.98118       -0.56872       -1.25085
H         -3.62320       -1.18809        0.31427
C         -0.86231        1.63754        0.13275
H         -2.55746        2.99591       -0.02181
H         -2.33172        1.91743       -1.44678
C         -0.48299        0.20863       -0.28247
H         -1.42577       -0.76618        1.41675
H         -1.21168       -1.82754       -0.02307
H         -0.80607        1.73046        1.24019
H         -0.14519        2.35978       -0.31283
H         -0.49021        0.13360       -1.39235
H          0.54226       -0.02621        0.07506
